.SUBCKT AO3404A 4 1 2

M1  3 10 2 2 NMOS W=1012500u  L=0.9u
M2  2 10 2 3 PMOS W=1180000u  L=0.4u
R1  4 3     RTEMP 4E-3
CGS 10 2     38E-12
DBD 2 3     DBD
Rg 1 10 1

**************************************************************************
.MODEL  NMOS       NMOS  (LEVEL  = 3               TOX    = 4.5E-8
+ RS     = 2E-4           RD     = 0               NSUB   = 1.6E17
+ kp     = 3E-5        	  UO     = 600             THETA  = 0.48
+ VMAX   = 0              XJ     = 4E-7            KAPPA  = 0.8
+ ETA    = 0              TPG    = 1               VTO=2.2
+ IS     = 0              LD     = 0
+ CGSO   = 0              CGDO   = 0               CGBO   = 0
+ NFS    = 2E10         DELTA  = 0.1)
*************************************************************************
.MODEL  PMOS       PMOS (LEVEL   = 3          Is=0     TOX    = 4.5E-8
+NSUB    = 5.0E16           TPG    = -1)
*************************************************************************
.MODEL DBD D (CJO=60E-12     VJ=0.6    M=0.3
+RS=0.005 FC=0.5 IS=1E-12 TT=8E-9 N=1.0 BV=36 IBV=1E-4)
*************************************************************************
.MODEL RTEMP RES (TC1=6.5E-3   TC2=1E-6)
*************************************************************************
.ENDS
